scripts/data/matpower/EAC/eac_base.m
%% MATPOWER Case Format : Version 2
function mpc = eac_base
mpc.version = '2';

%%-----  Power Flow Data  -----%%
%% system MVA base
mpc.baseMVA = 100.0;
%% bus data
%    bus_i    type    Pd    Qd    Gs    Bs    area    Vm    Va    baseKV    zone    Vmax    Vmin
mpc.bus = [
	6930	3	0.0	0.0	0.0	0.0	431	1.0	0.0	230.0	1	1.1	0.9				
	6943	1	0.0	0.0	0.0	0.0	431	1.093	-1.0	13.8	1	1.1	0.9				
	6944	1	0.0	0.0	0.0	0.0	431	1.093	-1.0	991.0	1	1.1	0.9				
	6945	1	0.0	0.0	0.0	0.0	431	1.07	-2.9	991.0	1	1.1	0.9				
	6946	1	0.0	0.0	0.0	0.0	431	1.07	-2.9	13.8	1	1.1	0.9				
	6950	1	-138.8	-41.78	0.0	0.0	431	1.085	-0.65	230.0	1	1.1	0.9				
	6951	1	0.0	0.0	0.0	0.0	432	0.953	-0.99	138.0	1	1.1	0.9				
	6952	1	0.0	0.0	0.0	0.0	432	0.988	-2.8	69.0	1	1.1	0.9				
	6953	1	0.0	0.0	0.0	0.0	431	1.071	-2.8	991.0	1	1.1	0.9				
	6954	1	0.0	0.0	0.0	0.0	431	1.071	-2.8	991.0	1	1.1	0.9				
	6956	1	0.0	0.0	0.0	0.0	431	1.092	-1.0	991.0	1	1.1	0.9				
	6957	1	0.0	0.0	0.0	0.0	431	1.071	-2.8	13.8	1	1.1	0.9				
	6958	1	0.0	0.0	0.0	0.0	431	1.071	-2.8	13.8	1	1.1	0.9				
	6959	1	0.0	0.0	0.0	0.0	431	1.092	-1.0	13.8	1	1.1	0.9				
	6963	1	0.0	0.0	0.0	0.0	431	1.07	-3.0000000000000004	991.0	1	1.1	0.9				
	6964	1	0.0	0.0	0.0	0.0	431	1.07	-3.0000000000000004	13.8	1	1.1	0.9				
	6965	1	39.0	13.699999999999998	0.0	0.0	432	1.036	-5.1	69.0	1	1.1	0.9				
	6967	1	30.3	10.6	0.0	0.0	432	1.054	-3.3	69.0	1	1.1	0.9				
	6969	1	5.3	1.9	0.0	0.0	432	1.02	-9.1	69.0	1	1.1	0.9				
	6975	1	33.9	11.9	0.0	0.0	432	1.041	-4.5	69.0	1	1.1	0.9				
	6982	1	11.0	3.9	0.0	0.0	432	1.04	-4.7	138.0	1	1.1	0.9				
	7001	4	0.0	0.0	0.0	0.0	432	0.993	0.0	992.0	1	1.1	0.9				
	7004	1	15.8	5.5	0.0	0.0	432	1.041	-4.6000000000000005	69.0	1	1.1	0.9				
	7009	1	0.9000000000000001	0.3	0.0	0.0	432	1.058	-5.6	69.0	1	1.1	0.9				
	7014	1	1.1	0.4	0.0	0.0	432	1.018	-9.8	69.0	1	1.1	0.9				
	7027	1	0.0	0.0	0.0	0.0	432	1.001	-4.9	69.0	1	1.1	0.9				
	7028	1	0.0	0.0	0.0	0.0	432	1.06	-2.8	69.0	1	1.1	0.9				
	7844	1	0.0	0.0	0.0	0.0	431	1.085	-0.65	13.8	1	1.1	0.9				
];

%% generator data
%    bus    Pg    Qg    Qmax    Qmin    Vg    mBase    status    Pmax    Pmin    Pc1    Pc2    Qc1min    Qc1max    Qc2min    Qc2max    ramp_agc    ramp_10    ramp_30    ramp_q    apf
mpc.gen = [
	6950	138.8	41.78	0.0	0.0	1.085	100.0	0	99999.0	0.0															
	7001	0.0	0.0	0.0	0.0	0.993	100.0	1	99999.0	0.0															
	6930	0.9399999999999998	-190.0	99999.0	-9999.0	1.0	100.0	1	99999.0	0.0															
];

%% branch data
%    f_bus    t_bus    r    x    b    rateA    rateB    rateC    ratio    angle    status    angmin    angmax
mpc.branch = [
	6952	7028	0.099092	0.24209	0.003934	47.0	59.0	47.0	0	0	1	-59.99999999999999	59.99999999999999								
	6930	6950	0.02305	0.16893999999999998	0.8993000000000001	476.99999999999994	476.99999999999994	476.99999999999994	0	0	1	-59.99999999999999	59.99999999999999								
	6952	6967	0.012993	0.077747	0.0016374	91.0	113.99999999999999	91.0	0	0	1	-59.99999999999999	59.99999999999999								
	6930	6950	0.022080000000000002	0.16788	0.871	557.0	696.0	696.0	0	0	1	-59.99999999999999	59.99999999999999								
	6952	7004	0.051364	0.16799	0.002994	61.0	76.0	76.0	0	0	1	-59.99999999999999	59.99999999999999								
	6952	6975	0.013007999999999999	0.077835	0.0016389999999999998	91.0	113.99999999999999	20.0	0	0	1	-59.99999999999999	59.99999999999999								
	7027	7009	0.57204	1.1039	0.017955000000000002	53.0	53.0	53.0	0	0	1	-59.99999999999999	59.99999999999999								
	6975	6965	0.016129	0.09651	0.002033	91.0	113.99999999999999	91.0	0	0	1	-59.99999999999999	59.99999999999999								
	6951	6982	0.1515	0.5158	0.1418	110.00000000000001	139.0	110.00000000000001	0	0	1	-59.99999999999999	59.99999999999999								
	6952	6967	0.012993	0.077747	0.0016374	91.0	113.99999999999999	91.0	0	0	1	-59.99999999999999	59.99999999999999								
	7004	6969	0.38951	1.2807	0.022978000000000002	61.0	76.0	76.0	0	0	1	-59.99999999999999	59.99999999999999								
	6952	6965	0.028974000000000003	0.17337	0.0036513	91.0	113.99999999999999	91.0	0	0	1	-59.99999999999999	59.99999999999999								
	6969	7014	0.50003	0.9640000000000001	0.01566	42.0	53.0	53.0	0	0	1	-59.99999999999999	59.99999999999999								
	6946	6945	0.0	0.09475	0.0	33.0	33.0	558.0	1.0	-0.0	1	-59.99999999999999	59.99999999999999								
	6951	6944	0.0	-0.01508	0.0	55.00000000000001	56.99999999999999	66.0	0.9461	-0.0	1	-59.99999999999999	59.99999999999999								
	6965	7001	0.0	0.3	0.0	20.0	23.0	50.0	1.0	-0.0	0	-59.99999999999999	59.99999999999999								
	6982	7027	0.0	0.6856	0.0	12.5	12.5	12.5	0.9908	-0.0	1	-59.99999999999999	59.99999999999999								
	6950	6945	0.0	0.13995	0.0	100.0	120.0	140.0	1.0	-0.0	1	-59.99999999999999	59.99999999999999								
	6957	6953	0.0	0.09475	0.0	33.0	33.0	33.0	1.0	-0.0	1	-59.99999999999999	59.99999999999999								
	6950	7844	0.0	0.2207	0.0	0.0	0.0	0.0	1.0	-0.0	1	-59.99999999999999	59.99999999999999								
	6951	6956	0.0	-0.00755	0.0	55.00000000000001	56.99999999999999	66.0	0.9461	-0.0	1	-59.99999999999999	59.99999999999999								
	6950	6944	0.0	0.13109	0.0	55.00000000000001	56.99999999999999	66.0	1.0	-0.0	1	-59.99999999999999	59.99999999999999								
	6952	6945	0.0	-0.0078000000000000005	0.0	100.0	120.0	140.0	0.9892	-0.0	1	-59.99999999999999	59.99999999999999								
	6959	6956	0.0	0.25627	0.0	18.0	18.0	18.0	1.0	-0.0	1	-59.99999999999999	59.99999999999999								
	6982	7027	0.0	0.6856	0.0	12.5	12.5	12.5	0.9908	-0.0	1	-59.99999999999999	59.99999999999999								
	6964	6963	0.0	0.1075	0.0	33.0	33.0	100.0	1.0	-0.0	1	-59.99999999999999	59.99999999999999								
	6952	6953	0.0	-0.00255	0.0	100.0	103.0	120.0	0.9892	-0.0	1	-59.99999999999999	59.99999999999999								
	6950	6953	0.0	0.13995	0.0	100.0	103.0	120.0	1.0	-0.0	1	-59.99999999999999	59.99999999999999								
	6950	6954	0.0	0.1393	0.0	100.0	103.0	120.0	1.0	-0.0	1	-59.99999999999999	59.99999999999999								
	6958	6954	0.0	0.0949	0.0	33.0	33.0	55.00000000000001	1.0	-0.0	1	-59.99999999999999	59.99999999999999								
	6952	6954	0.0	-0.0026	0.0	100.0	103.0	120.0	0.9892	-0.0	1	-59.99999999999999	59.99999999999999								
	6950	6963	0.0	0.1475	0.0	100.0	103.0	120.0	1.0	-0.0	1	-59.99999999999999	59.99999999999999								
	6950	6956	0.0	0.12355000000000001	0.0	55.00000000000001	56.99999999999999	66.0	1.0	-0.0	1	-59.99999999999999	59.99999999999999								
	6952	6963	0.0	-0.0125	0.0	100.0	103.0	120.0	0.9892	-0.0	1	-59.99999999999999	59.99999999999999								
	6943	6944	0.0	0.25164000000000003	0.0	18.0	18.0	18.0	1.0	-0.0	1	-59.99999999999999	59.99999999999999								
];

%%-----  OPF Data  -----%%
%% cost data
%    1    startup    shutdown    n    x1    y1    ...    xn    yn
%    2    startup    shutdown    n    c(n-1)    ...    c0
mpc.gencost = [
	2	0.0	0.0	2	1.0	0.0
	2	0.0	0.0	2	1.0	0.0
	2	0.0	0.0	2	1.0	0.0
];

%% bus names
mpc.bus_name = {
	'ABUNA--RO230'
	'RBRAA2-AC013'
	'RBRAA2-AC000'
	'RBRAN3-AC000'
	'RBRAN3-AC013'
	'R.BRAN-AC230'
	'R.BRAN-AC138'
	'R.BRAN-AC069'
	'RBRAN1-AC000'
	'RBRAN2-AC000'
	'RBRAA1-AC000'
	'RBRAN1-AC013'
	'RBRAN2-AC013'
	'RBRAA1-AC013'
	'RBRAN4-AC000'
	'RBRAN4-AC013'
	'TANGAR-AC069'
	'S.FRAN-AC069'
	'S.MADU-AC069'
	'TAQUA1-AC069'
	'EPITAC-AC138'
	'RACRE2UTE000'
	'ALTOAL-AC069'
	'ASSISB-AC069'
	'MANOEL-AC069'
	'EPITAC-AC069'
	'PEIXES-AC069'
	'RBRAN-CER013'
};

